.subckt and_2 node_a node_b node_out vdd gnd

x1 node_a node_b n1_out vdd gnd nand_2
x2 n1_out node_out vdd gnd inv

.ends and_2

